*Heading
** Job name: Job-1 Model name: Model-1
** Generated by: Abaqus/CAE 2022
*Preprint, echo=NO, model=NO, history=NO, contact=NO
**
** PARTS
**
*Part, name=Cylinder
*Node
      1,           0.,           0.,          40.
      2,           0.,         -20.,          40.
      3,          20.,           0.,          40.
      4,           0.,         -20.,           0.
      5,          20.,           0.,           0.
      6,           0.,           0.,           0.
      7,           0.,          20.,           0.
      8,           0.,          20.,          40.
      9,         -20.,           0.,           0.
     10,         -20.,           0.,          40.
     11,           0.,  -2.85714293,          40.
     12,           0.,  -5.71428585,          40.
     13,           0.,   -8.5714283,          40.
     14,           0.,  -11.4285717,          40.
     15,           0.,  -14.2857141,          40.
     16,           0.,  -17.1428566,          40.
     17,   5.17638111,  -19.3185158,          40.
     18,          10.,   -17.320509,          40.
     19,   14.1421356,  -14.1421356,          40.
     20,    17.320509,         -10.,          40.
** ... 2647 like lines cut
*Element, type=C3D4
   1, 1188, 1189, 1190, 1191
   2, 1188, 1192, 1193, 1189
   3,  540,  522, 1194,  541
   4, 1195, 1196, 1197, 1188
   5,  308, 1198,   77, 1199
   6, 1188, 1197, 1200, 1196
   7, 1201, 1188, 1202, 1203
   8, 1204, 1205, 1206, 1207
   9, 1204, 1197, 1206, 1208
  10, 1197, 1209, 1193, 1204
  11, 1204, 1210, 1211, 1212
  12, 1204, 1209, 1207, 1213
  13, 1214, 1215, 1216, 1217
  14, 1214, 1215, 1218, 1219
  15, 1220, 1215, 1216, 1221
  16, 1215, 1216, 1221, 1214
  17, 1214, 1216, 1221, 1222
  18, 1214, 1216, 1222, 1223
  19, 1214, 1216, 1223, 1224
  20, 1225, 1226, 1227, 1228
** ... 13922 like lines cut
*Nset, nset=Wire-2-Set-1
   1,   2,   4,   6,   7,   8,  11,  12,  13,  14,  15,  16,  28,  29,  30,  31
  32,  33,  34,  35,  36,  37,  38,  39,  40,  41,  42,  43,  44,  45,  46,  71
  72,  73,  74,  75,  76, 102, 103, 104, 105, 106, 107, 113, 114, 115, 116, 117
 118, 119, 120, 121, 122, 123, 124, 125, 126, 127, 128, 129, 130, 131, 137, 138
 139, 140, 141, 142
*Elset, elset=Wire-2-Set-1
   110,   259,   647,   762,   880,  1027,  1028,  1035,  1101,  1114,  1115,  1155,  1503,  1539,  1705,  1733
  1792,  1801,  1804,  1847,  1899,  1911,  1931,  1962,  1963,  1966,  1980,  1997,  2001,  2002,  2007,  2046
  2061,  2073,  2091,  2115,  2132,  2160,  2191,  2317,  2325,  2328,  2417,  2431,  2436,  2755,  2758,  2770
  2778,  2781,  2805,  2808,  2888,  2905,  3036,  3088,  3262,  3425,  3559,  3580,  3698,  4365,  4433,  4475
  4493,  4511,  4512,  4577,  4629,  4630,  4692,  5031,  5184,  5203,  5219,  5220,  5247,  5335,  5360,  5376
  5386,  5387,  5393,  5394,  5398,  5409,  5411,  5412,  5451,  5473,  5482,  5489,  5504,  5538,  5562,  5595
  5598,  5973,  6211,  6264,  6292,  6295,  6302,  6354,  6371,  6384,  6413,  6420,  6451,  6525,  6795,  6903
  6972,  7148,  7322,  7375,  7910,  7911,  7928,  7956,  7959,  7965,  7966,  8123,  8128,  8227,  8599,  8667
  8703,  8706,  8759,  8765,  8883,  8918,  8928,  9031,  9047,  9213,  9435,  9444,  9471,  9472,  9482,  9483
  9635,  9741,  9775,  9841,  9845,  9846,  9874,  9875,  9892,  9911,  9915,  9918,  9934,  9940,  9951,  9955
  9969,  9985,  9998, 10024, 10026, 10037, 10039, 10170, 10176, 10237, 10262, 10549, 10601, 11473, 11484, 11485
 11488, 11568, 11582, 11589, 11593, 11851, 12005, 12082, 12083, 12090, 12157, 12159, 12160, 12179, 12212, 12256
 12270, 12274, 12275, 12287, 12358, 12372, 12395, 12445, 12458, 12512, 12536, 12589, 12597, 13051, 13299, 13387
 13399, 13402, 13421, 13435, 13573, 13575, 13596, 13606, 13633, 13663, 13675, 13685, 13769, 13790, 13913, 13916
 13931, 13934
*Nset, nset=Set-1, generate
    1,  2667,     1
*Elset, elset=Set-1, generate
     1,  13942,      1
*Nset, nset=Wire-1-Set-1
   1,   3,   5,   6,   9,  10,  22,  23,  24,  25,  26,  27,  52,  53,  54,  55
  56,  57,  58,  59,  60,  61,  62,  63,  64,  65,  66,  67,  68,  69,  70,  77
  78,  79,  80,  81,  82, 143, 144, 145, 146, 147, 148, 154, 155, 156, 157, 158
 159, 160, 161, 162, 163, 164, 165, 166, 167, 168, 169, 170, 171, 172, 173, 174
 175, 176, 177, 178
*Elset, elset=Wire-1-Set-1
    27,   113,   239,   271,   430,   734,   880,  1029,  1045,  1069,  1070,  1084,  1085,  1140,  1423,  1635
  1726,  1729,  1733,  1741,  1785,  1857,  1886,  1891,  1892,  2065,  2356,  2381,  2382,  2525,  2572,  2594
  2614,  2626,  2632,  2639,  2648,  2656,  2682,  2711,  2716,  2726,  2729,  2749,  2841,  2842,  2913,  2995
  3006,  3025,  3116,  3221,  3223,  3261,  3300,  3301,  3497,  3533,  3583,  4241,  4260,  4420,  4463,  4474
  4523,  4548,  4550,  4558,  4563,  4567,  4606,  4993,  5136,  5209,  5212,  5213,  5247,  5255,  5258,  5259
  5516,  5519,  5870,  5919,  5923,  5944,  5950,  5984,  6019,  6049,  6062,  6078,  6094,  6099,  6102,  6124
  6152,  6162,  6163,  6252,  6302,  6309,  6320,  6325,  6377,  6505,  6513,  6720,  6760,  6802,  6837,  6881
  7285,  7366,  7425,  7779,  7844,  7911,  7936,  7937,  7941,  7985,  8000,  8001,  8012,  8015,  8016,  8047
  8057,  8059,  8060,  8076,  8080,  8462,  8523,  8531,  8625,  8654,  8656,  8673,  8764,  8773,  8798,  8833
  8882,  8886,  8891,  8893,  9026,  9031,  9110,  9114,  9117,  9119,  9205,  9291,  9292,  9348,  9405,  9486
  9532,  9544,  9591,  9612,  9617,  9664,  9671,  9706,  9752,  9996, 10110, 10323, 10336, 10577, 10922, 11466
 11526, 11527, 11541, 11546, 11552, 11650, 11802, 11948, 12080, 12093, 12179, 12194, 12315, 12318, 12374, 12375
 12520, 12522, 12569, 12595, 12638, 12884, 12913, 12968, 12988, 12993, 13001, 13096, 13114, 13117, 13157, 13163
 13236, 13347, 13369, 13371, 13447, 13470, 13513, 13534, 13645, 13705, 13719, 13779, 13795, 13828, 13829, 13834
 13856, 13861, 13866, 13873, 13934
** Section: Section-1
*Solid Section, elset=Set-1, material=Solaris
,
*End Part
**  
**
** ASSEMBLY
**
*Assembly, name=Assembly
**  
*Instance, name=Cylinder-1, part=Cylinder
*End Instance
**  
*Node
      1, -1.2246468e-15,           0.,          40.
*Nset, nset=RP_set
 1,
*Nset, nset=bottom_surface, instance=Cylinder-1
    4,    5,    6,    7,    9,   47,   48,   49,   50,   51,   71,   72,   73,   74,   75,   76
   77,   78,   79,   80,   81,   82,  102,  103,  104,  105,  106,  107,  108,  109,  110,  111
  112,  143,  144,  145,  146,  147,  148,  149,  150,  151,  152,  153,  184,  185,  186,  187
  188,  307,  308,  309,  310,  311,  312,  313,  314,  315,  316,  317,  318,  319,  320,  321
  322,  323,  324,  325,  326,  555,  556,  557,  558,  559,  560,  561,  562,  563,  564,  565
  566,  567,  568,  569,  570,  571,  572,  573,  574,  804,  805,  806,  807,  808,  809,  810
  811,  812,  813,  814,  815,  816,  817,  818,  819,  820,  821,  822,  823, 1053, 1054, 1055
 1056, 1057, 1058, 1059, 1060, 1061, 1062, 1063, 1064, 1065, 1066, 1067, 1068, 1069, 1070, 1071
 1072,
*Elset, elset=bottom_surface, instance=Cylinder-1
    27,   259,   271,   647,   803,   880,   928,   958,  1140,  1179,  1183,  1262,  1625,  1631,  1768,  2069
  2137,  2184,  2191,  2220,  2300,  2356,  2391,  2495,  2518,  2619,  2638,  2781,  2784,  2785,  2794,  2808
  2818,  2819,  2828,  2832,  2841,  2842,  2844,  2848,  2856,  2863,  2878,  2888,  2890,  2891,  2902,  2914
  2916,  2930,  2940,  2945,  2947,  2949,  2971,  3262,  3368,  3387,  3497,  3995,  4260,  4327,  4365,  4419
  4433,  4463,  4606,  4919,  5015,  5059,  5063,  5105,  5109,  5136,  5160,  5164,  5184,  5203,  5210,  5219
  5238,  5240,  5246,  5247,  5257,  5265,  5272,  5273,  5282,  5285,  5295,  5297,  5300,  5324,  5329,  5355
  5388,  5414,  5507,  5585,  5611,  5729,  5730,  5747,  5846,  5847,  5941,  6049,  6289,  6792,  6793,  6818
  6825,  6833,  6853,  6903,  7148,  7322,  7375,  7425,  7981,  8020,  8088,  8356,  8530,  8564,  8599,  8617
  8620,  8628,  8653,  8654,  8655,  8662,  8670,  8682,  8685,  8693,  8702,  8703,  8737,  8740,  8785,  8789
  8793,  8798,  8894,  9021,  9022,  9026,  9030,  9031,  9039,  9063,  9073,  9101,  9163,  9176,  9193,  9259
  9268,  9367,  9400,  9612,  9616,  9617,  9904,  9932,  9946,  9951,  9971,  9978, 10010, 10138, 10922, 11112
 11577, 11835, 11999, 12019, 12033, 12043, 12045, 12064, 12086, 12092, 12093, 12110, 12119, 12127, 12157, 12159
 12160, 12166, 12168, 12171, 12179, 12181, 12184, 12194, 12204, 12206, 12212, 12213, 12224, 12229, 12239, 12245
 12248, 12287, 12292, 12294, 12312, 12314, 12315, 12319, 12331, 12335, 12339, 12342, 12554, 12569, 12595, 12687
 12720, 12816, 12821, 12844, 13299, 13416, 13722, 13819
*Nset, nset=central_line, instance=Cylinder-1
   1,   6,  83,  84,  85,  86,  87,  88,  89,  90,  91,  92,  93,  94,  95,  96
  97,  98,  99, 100, 101
*Elset, elset=central_line, instance=Cylinder-1
   204,   632,   902,   960,  1028,  1029,  1034,  1173,  1187,  1191,  1194,  1237,  1244,  1254,  1257,  1591
  1673,  1675,  1682,  1697,  1718,  1770,  2396,  2448,  2466,  2613,  2622,  2646,  2655,  2858,  3034,  3046
  3121,  3159,  3194,  3305,  3307,  3352,  3375,  3380,  3607,  3649,  3800,  3947,  4197,  4356,  4418,  4474
  4475,  4477,  4610,  4680,  4697,  4744,  4896,  5216,  5217,  5261,  5477,  5523,  5567,  5652,  5724,  5740
  5820,  5821,  5824,  5867,  6107,  6159,  6160,  6165,  6172,  6204,  6208,  6341,  6432,  6639,  6644,  6772
  7214,  7306,  7317,  7354,  7519,  7910,  8068,  8092,  8096,  8097,  8143,  8148,  8158,  8160,  8180,  8187
  8205,  8208,  8231,  8353,  8357,  8583,  8657,  8661,  8833,  8851,  8904,  8917,  8956,  8959,  8990,  8999
  9070,  9086,  9410,  9697,  9702,  9738,  9750,  9826, 10597, 11340, 11519, 11595, 11646, 11652, 11703, 11910
 11923, 11972, 11997, 12128, 12241, 12327, 12389, 12564, 12567, 12999, 13031, 13038, 13136, 13161, 13163, 13184
 13185, 13202, 13211, 13228, 13256, 13257, 13271, 13278, 13308, 13325, 13349, 13358, 13378, 13388, 13404, 13606
*Nset, nset=surface, instance=Cylinder-1
    1,    2,    3,    4,    5,    6,    7,    8,    9,   10,   11,   12,   13,   14,   15,   16
   17,   18,   19,   20,   21,   22,   23,   24,   25,   26,   27,   28,   29,   30,   31,   32
   33,   34,   35,   36,   37,   38,   39,   40,   41,   42,   43,   44,   45,   46,   47,   48
   49,   50,   51,   52,   53,   54,   55,   56,   57,   58,   59,   60,   61,   62,   63,   64
   65,   66,   67,   68,   69,   70,   71,   72,   73,   74,   75,   76,   77,   78,   79,   80
   81,   82,  102,  103,  104,  105,  106,  107,  108,  109,  110,  111,  112,  113,  114,  115
  116,  117,  118,  119,  120,  121,  122,  123,  124,  125,  126,  127,  128,  129,  130,  131
  132,  133,  134,  135,  136,  137,  138,  139,  140,  141,  142,  143,  144,  145,  146,  147
  148,  149,  150,  151,  152,  153,  154,  155,  156,  157,  158,  159,  160,  161,  162,  163
  164,  165,  166,  167,  168,  169,  170,  171,  172,  173,  174,  175,  176,  177,  178,  179
  180,  181,  182,  183,  184,  185,  186,  187,  188,  189,  190,  191,  192,  193,  194,  195
  196,  197,  198,  199,  200,  201,  202,  203,  204,  205,  206,  207,  208,  209,  210,  211
  212,  213,  214,  215,  216,  217,  218,  219,  220,  221,  222,  223,  224,  225,  226,  227
  228,  229,  230,  231,  232,  233,  234,  235,  236,  237,  238,  239,  240,  241,  242,  243
  244,  245,  246,  247,  248,  249,  250,  251,  252,  253,  254,  255,  256,  257,  258,  259
  260,  261,  262,  263,  264,  265,  266,  267,  268,  269,  270,  271,  272,  273,  274,  275
  276,  277,  278,  279,  280,  281,  282,  283,  284,  285,  286,  287,  288,  289,  290,  291
  292,  293,  294,  295,  296,  297,  298,  299,  300,  301,  302,  303,  304,  305,  306,  307
  308,  309,  310,  311,  312,  313,  314,  315,  316,  317,  318,  319,  320,  321,  322,  323
  324,  325,  326,  555,  556,  557,  558,  559,  560,  561,  562,  563,  564,  565,  566,  567
** ... 25 like lines cut
*Elset, elset=surface, instance=Cylinder-1
    27,    68,    72,    86,   110,   113,   185,   239,   259,   271,   522,   599,   647,   668,   734,   745
   762,   764,   773,   776,   803,   844,   880,   928,   937,   958,  1009,  1027,  1069,  1089,  1101,  1115
  1133,  1140,  1155,  1179,  1183,  1258,  1262,  1304,  1321,  1370,  1422,  1503,  1539,  1549,  1610,  1615
  1616,  1622,  1625,  1626,  1631,  1640,  1641,  1644,  1650,  1654,  1658,  1686,  1703,  1705,  1709,  1723
  1724,  1732,  1733,  1743,  1744,  1748,  1761,  1764,  1765,  1768,  1785,  1795,  1797,  1822,  1823,  1848
  1857,  1867,  1878,  1880,  1882,  1884,  1890,  1891,  1892,  1894,  1896,  1899,  1911,  1913,  1915,  1916
  1917,  1918,  1929,  1930,  1931,  1932,  1934,  1950,  1959,  1962,  1963,  1968,  1978,  1990,  1997,  2002
  2007,  2008,  2009,  2017,  2021,  2026,  2037,  2046,  2053,  2069,  2072,  2073,  2074,  2078,  2080,  2082
  2087,  2101,  2104,  2108,  2115,  2133,  2137,  2149,  2151,  2159,  2165,  2177,  2178,  2179,  2184,  2191
  2199,  2201,  2205,  2210,  2211,  2220,  2232,  2236,  2242,  2244,  2251,  2259,  2267,  2275,  2276,  2285
  2287,  2300,  2301,  2305,  2306,  2312,  2326,  2330,  2333,  2354,  2356,  2358,  2360,  2367,  2377,  2378
  2381,  2383,  2387,  2391,  2397,  2410,  2416,  2417,  2419,  2423,  2434,  2436,  2440,  2454,  2455,  2460
  2463,  2472,  2482,  2490,  2495,  2496,  2513,  2514,  2518,  2520,  2525,  2537,  2538,  2544,  2572,  2583
  2589,  2593,  2594,  2596,  2599,  2602,  2614,  2617,  2619,  2621,  2626,  2627,  2632,  2635,  2636,  2638
  2639,  2648,  2652,  2656,  2661,  2668,  2677,  2679,  2681,  2682,  2685,  2697,  2705,  2706,  2716,  2720
  2732,  2749,  2764,  2766,  2770,  2771,  2775,  2780,  2781,  2782,  2784,  2785,  2794,  2795,  2797,  2808
  2818,  2819,  2827,  2828,  2831,  2832,  2835,  2841,  2842,  2844,  2848,  2856,  2863,  2878,  2888,  2890
  2891,  2902,  2914,  2916,  2926,  2927,  2930,  2931,  2940,  2945,  2947,  2949,  2953,  2955,  2971,  2980
  2988,  2992,  2995,  2997,  3006,  3007,  3016,  3021,  3022,  3025,  3027,  3030,  3033,  3036,  3039,  3040
  3045,  3050,  3056,  3062,  3073,  3088,  3091,  3093,  3098,  3110,  3131,  3141,  3147,  3149,  3151,  3163
** ... 67 like lines cut
*Nset, nset=top_surface, instance=Cylinder-1
    1,    2,    3,    8,   10,   11,   12,   13,   14,   15,   16,   17,   18,   19,   20,   21
   22,   23,   24,   25,   26,   27,  132,  133,  134,  135,  136,  137,  138,  139,  140,  141
  142,  173,  174,  175,  176,  177,  178,  179,  180,  181,  182,  183,  189,  190,  191,  192
  193,  194,  195,  196,  197,  198,  199,  200,  201,  202,  203,  204,  205,  206,  207,  208
  209,  210,  211,  670,  671,  672,  673,  674,  675,  676,  677,  678,  679,  680,  681,  682
  683,  684,  685,  686,  687,  688,  689, 1033, 1034, 1035, 1036, 1037, 1038, 1039, 1040, 1041
 1042, 1043, 1044, 1045, 1046, 1047, 1048, 1049, 1050, 1051, 1052, 1168, 1169, 1170, 1171, 1172
 1173, 1174, 1175, 1176, 1177, 1178, 1179, 1180, 1181, 1182, 1183, 1184, 1185, 1186, 1187
*Elset, elset=top_surface, instance=Cylinder-1
   734,   773,  1027,  1304,  1422,  1616,  1644,  1686,  1703,  1705,  1709,  1724,  1732,  1733,  1743,  1744
  1748,  1761,  1764,  1765,  1785,  1797,  1822,  1823,  1848,  1857,  1867,  1878,  1894,  1896,  1911,  1913
  1915,  1917,  1963,  1978,  1990,  2008,  2037,  2205,  2572,  2782,  2988,  2992,  2995,  2997,  3006,  3022
  3033,  3036,  3045,  3088,  3163,  3327,  3533,  3559,  4241,  4692,  5033,  5036,  5253,  5255,  5521,  5525
  5586,  5721,  5810,  5909,  5927,  5935,  6015,  6129,  6163,  6177,  6218,  6219,  6221,  6226,  6241,  6242
  6243,  6255,  6256,  6264,  6270,  6273,  6302,  6305,  6313,  6320,  6324,  6328,  6330,  6338,  6340,  6346
  6347,  6354,  6357,  6358,  6369,  6377,  6386,  6391,  6394,  6400,  6408,  6445,  6451,  6525,  6528,  6559
  6919,  7041,  7176,  7195,  7361,  7366,  7756,  7779,  7911,  7912,  7937,  8079,  8375,  8413,  8465,  8542
  8643,  8764,  8795,  8828,  8882,  8996,  9110,  9207,  9213,  9303,  9307,  9308,  9425,  9432,  9639,  9746
  9789,  9797,  9801,  9833,  9834,  9838,  9841,  9842,  9850,  9853,  9854,  9954,  9955, 10028, 10039, 10048
 10170, 10171, 10217, 10221, 10252, 10253, 10261, 10262, 10324, 10328, 10577, 10580, 10601, 10740, 10882, 11166
 11188, 11435, 11465, 11485, 11607, 11609, 11807, 11845, 11948, 12083, 12510, 12528, 12536, 12630, 12760, 12913
 13003, 13053, 13130, 13162, 13168, 13179, 13225, 13236, 13465, 13467, 13468, 13474, 13475, 13484, 13498, 13510
 13520, 13523, 13526, 13529, 13535, 13536, 13546, 13549, 13551, 13559, 13568, 13573, 13631, 13699, 13719, 13828
 13914, 13916, 13931, 13934
*Elset, elset=_bottom_surface_S3, internal, instance=Cylinder-1
    27,   259,   803,   880,   928,  1140,  1183,  1262,  1625,  1631,  1768,  2069,  2137,  2220,  2300,  2495
  2518,  2638,  2785,  2808,  2818,  2819,  2828,  2832,  2842,  2844,  2856,  2863,  2878,  2888,  2890,  2891
  2902,  2914,  2916,  2945,  2947,  2949,  2971,  3368,  3387,  3497,  4260,  4327,  4365,  4433,  4606,  5015
  5059,  5063,  5105,  5109,  5136,  5210,  5238,  5240,  5246,  5247,  5257,  5265,  5272,  5273,  5285,  5295
  5297,  5300,  5329,  5355,  5388,  5414,  5507,  5585,  5611,  5729,  5730,  5747,  5941,  6289,  6792,  6793
  6818,  6825,  6833,  6853,  6903,  7148,  7322,  7375,  7425,  7981,  8020,  8088,  8356,  8530,  8564,  8599
  8617,  8620,  8628,  8653,  8654,  8655,  8662,  8670,  8682,  8685,  8693,  8702,  8703,  8737,  8740,  8785
  8789,  8793,  8798,  8894,  9021,  9022,  9030,  9031,  9039,  9063,  9073,  9176,  9193,  9259,  9268,  9367
  9612,  9616,  9617,  9904,  9932,  9946,  9951,  9971, 10138, 10922, 11112, 11577, 11835, 11999, 12019, 12033
 12043, 12045, 12064, 12086, 12092, 12093, 12110, 12119, 12127, 12157, 12160, 12166, 12168, 12171, 12179, 12181
 12184, 12194, 12204, 12206, 12212, 12229, 12239, 12245, 12248, 12287, 12294, 12312, 12314, 12319, 12331, 12335
 12339, 12342, 12554, 12569, 12595, 12687, 12720, 13299, 13722, 13819
*Elset, elset=_bottom_surface_S4, internal, instance=Cylinder-1
   271,  1179,  2184,  2356,  2619,  2848,  2940,  4463,  4919,  5164,  5184,  5203,  5847,  6049,  9026,  9978
 12159, 12292, 12315, 12821
*Elset, elset=_bottom_surface_S2, internal, instance=Cylinder-1
   647,   958,  2191,  2841,  2930,  3262,  3995,  5282,  5324,  5846,  9101, 12213, 12224, 12844
*Elset, elset=_bottom_surface_S1, internal, instance=Cylinder-1
  2391,  2781,  2784,  2794,  4419,  5160,  5219,  9163,  9400, 10010, 12816, 13416
*Surface, type=ELEMENT, name=bottom_surface
_bottom_surface_S3, S3
_bottom_surface_S4, S4
_bottom_surface_S2, S2
_bottom_surface_S1, S1
*Elset, elset=_slave_surface_S3, internal, instance=Cylinder-1
   734,   773,  1027,  1304,  1422,  1616,  1644,  1686,  1703,  1705,  1709,  1724,  1732,  1733,  1743,  1744
  1748,  1761,  1764,  1765,  1785,  1797,  1822,  1848,  1857,  1867,  1878,  1894,  1896,  1911,  1913,  1915
  1917,  1978,  1990,  2008,  2037,  2205,  2572,  2988,  2995,  2997,  3006,  3033,  3036,  3088,  3163,  3327
  3533,  3559,  4692,  5036,  5253,  5255,  5525,  5810,  5927,  6129,  6163,  6177,  6218,  6226,  6241,  6242
  6243,  6255,  6256,  6264,  6270,  6273,  6302,  6305,  6313,  6320,  6324,  6328,  6330,  6338,  6340,  6346
  6347,  6354,  6357,  6358,  6369,  6377,  6386,  6394,  6400,  6408,  6445,  6451,  6525,  6528,  6559,  6919
  7041,  7176,  7195,  7366,  7756,  7911,  7912,  7937,  8079,  8413,  8465,  8795,  9207,  9213,  9307,  9308
  9432,  9639,  9746,  9789,  9797,  9801,  9834,  9838,  9842,  9954, 10039, 10170, 10221, 10253, 10261, 10324
 10328, 10577, 10580, 10740, 11188, 11607, 11609, 11807, 11845, 12510, 12528, 12760, 13130, 13162, 13179, 13225
 13468, 13474, 13484, 13520, 13523, 13526, 13535, 13536, 13546, 13549, 13559, 13699, 13828, 13934
*Elset, elset=_slave_surface_S2, internal, instance=Cylinder-1
  1963,  2782,  2992,  3045,  4241,  5033,  6219,  7361,  7779,  8764,  8828,  9110,  9303,  9425,  9854, 10262
 10882, 11435, 11948, 12083, 13168, 13498, 13510, 13529
*Elset, elset=_slave_surface_S1, internal, instance=Cylinder-1
  1823,  5521,  5909,  6015,  8375,  8643,  8882,  9833,  9841, 10028, 10217, 11465, 12536, 12630, 12913, 13003
 13236, 13467, 13551, 13568, 13573, 13631, 13719, 13914
*Elset, elset=_slave_surface_S4, internal, instance=Cylinder-1
  3022,  5586,  5721,  5935,  6221,  6391,  8542,  8996,  9850,  9853,  9955, 10048, 10171, 10252, 10601, 11166
 11485, 13053, 13465, 13475, 13916, 13931
*Surface, type=ELEMENT, name=slave_surface
_slave_surface_S3, S3
_slave_surface_S2, S2
_slave_surface_S4, S4
_slave_surface_S1, S1
** Constraint: Constraint_of_top_surface
*Coupling, constraint name=Constraint_of_top_surface, ref node=RP_set, surface=slave_surface
*Kinematic
** 
** INTEGRATED OUTPUT SECTIONS
** 
*Integrated Output Section, name=I-Section-1, surface=bottom_surface, project orientation=NO
*End Assembly
** 
** MATERIALS
** 
*Material, name=Solaris
*Density
 9.9e-10,
*Elastic
 youngs_modulus, poisson_ratio
** 
** BOUNDARY CONDITIONS
** 
** Name: BC_of_bottom_surface Type: Displacement/Rotation
*Boundary
bottom_surface, 1, 1
bottom_surface, 2, 2
bottom_surface, 3, 3
bottom_surface, 4, 4
bottom_surface, 5, 5
bottom_surface, 6, 6
** ----------------------------------------------------------------
** 
** STEP: Step-1
** 
*Step, name=Step-1, nlgeom=YES
*Static
1., 1., 1e-05, 1.
** 
** BOUNDARY CONDITIONS
** 
** Name: BC_of_RP Type: Displacement/Rotation
*Boundary
RP_set, 1, 1, u1
RP_set, 2, 2, u2
RP_set, 3, 3, u3
RP_set, 4, 4, ur1
RP_set, 5, 5, ur2
RP_set, 6, 6, ur3
** 
** OUTPUT REQUESTS
** 
*Restart, write, frequency=0
** 
** FIELD OUTPUT: F-Output-1
** 
*Output, field
*Node Output
CF, RF, U
*Element Output, directions=YES
NFORC, S
** 
** HISTORY OUTPUT: H-Output-1
** 
*Output, history
*Integrated Output, section=I-Section-1
SOF, SOM
*End Step
